
*NODE, NSET=Nall
1, 0., 0., 0.
2, 1., 0., 0.
3, 1., 1., 0.
4, 0., 1., 0.
5, 0., 0., 1.
6, 1., 0., 1.
7, 1., 1., 1.
8, 0., 1., 1.
100, 0.5, 0.5, 10.0

*ELEMENT, TYPE=C3D8, ELSET=Eall
1, 1, 2, 3, 4, 5, 6, 7, 8

*ELEMENT, TYPE=DCOUP3D, ELSET=E_DCOUP
2, 100

*NSET, NSET=TopNodes
5, 6, 7, 8

*NSET, NSET=BottomNodes
1, 2, 3, 4

*DISTRIBUTING COUPLING, ELSET=E_DCOUP
TopNodes, 1.

*MATERIAL, NAME=MAT
*ELASTIC
210000., 0.3

*SOLID SECTION, ELSET=Eall, MATERIAL=MAT

*STEP
*STATIC
*BOUNDARY
BottomNodes, 1, 3, 0.0
*CLOAD
100, 1, 100.0
*NODE PRINT, NSET=TopNodes
U
*END STEP
